[General]
network = SimpleWLAN
#cmdenv-output-file = omnetpp.log
#debug-on-errors = true
#record-eventlog = true
repeat=3
sim-time-limit=20s

**.constraintAreaMinX = 0m
**.constraintAreaMinY = 0m
**.constraintAreaMinZ = 0m
**.constraintAreaMaxX = 1000m
**.constraintAreaMaxY = 1000m
**.constraintAreaMaxZ = 10m

# positions
**.cliHost[*].mobility.typename = "CircleMobility"
**.mobility.cx = 200m
**.mobility.cy = 200m
**.mobility.r = 100m
**.mobility.cz = 1m
SimpleWLAN.numCli = ${N = 1, 5, 25, 50}
**.cliHost[*].mobility.startAngle = parentIndex() * 360deg/${N}

#####################new parameters########################
*.srvHost.mobility.initialX = 205m
*.srvHost.mobility.initialY = 205m
*.ap.mobility.initialX = 200m
*.ap.mobility.initialY = 200m

**.mobility.initialZ = 1m #antennas 1 meter high

**.physicalEnvironment.ground.typename = "FlatGround"
**.radioMedium.pathLoss.typename = "TwoRayGroundReflection"

**.wlan*.bitrate = 1Mbps
**.radio.centerFrequency = 2.4GHz
**.mac.dcf.rtsPolicy.rtsThreshold = 3000B
**.wlan.mac.dcf.recoveryProcedure.shortRetryLimit = 7
**.wlan.mac.dcf.recoveryProcedure.longRetryLimit = 4
**.wlan.mac.dcf.channelAccess.cwMin = 31
**.radio.transmitter.power = 18.0mW
**.backgroundNoise.power = -110dBm
**.radio.receiver.sensitivity = -85dBm
**.radio.receiver.energyDetection = -85dBm
**.radio.receiver.snirThreshold = 0dB
############################################################

# access point
**.ap.wlan[*].address = "10:00:00:00:00:00"
**.srvHost.wlan.address = "20:00:00:00:00:00"
**.mgmt.accessPointAddress = "10:00:00:00:00:00"

# nic settings
#**.wlan*.retryLimit = 7

# cli
**.cli.reqLength =${octets=25,600,1100}B
**.cli.respLength = 0B
**.cli.destAddress = "20:00:00:00:00:00"
#**.cli.destStation = ""
**.cli.sendInterval = 0.05ms


