[General]
network = WiredAndWirelessHostsWithAP
sim-time-limit = 400s
tkenv-plugin-path = ../../../etc/plugins

**.addStaticRoutes = false

**.accessPoint1.wlan[0].mgmt.ssid="eduroam"
**.accessPoint1.wlan*.radio.channelNumber = 1
**.accessPoint2.wlan[0].mgmt.ssid="INESC-ID"
**.accessPoint2.wlan*.radio.channelNumber = 3

**.wirelessHost1.wlan[*].agent.defaultSsid = ""
**.wirelessHost1.wlan[*].mgmt.numChannels = 5

**.wirelessHost1.mobility.typename = "RectangleMobility"
**.wirelessHost1.mobility.speed = 1mps
**.wirelessHost1.mobility.constraintAreaMinX = 50m
**.wirelessHost1.mobility.constraintAreaMaxX = 250m
**.wirelessHost1.mobility.constraintAreaMinY = 50m
**.wirelessHost1.mobility.constraintAreaMaxY = 50m
**.wirelessHost1.mobility.constraintAreaMinZ = 0m
**.wirelessHost1.mobility.constraintAreaMaxZ = 0m
**.wirelessHost1.mobility.startPos = 0

**.radioMedium.analogModel.ignorePartialInterference=true


**.*Host*.numApps = 1

**.wirelessHost1.app[0].typename = "UdpEchoApp"
**.wirelessHost1.app[0].localPort = 1000

**.wiredHost1.app[0].typename = "UdpBasicApp"
**.wiredHost2.app[0].typename = "UdpBasicApp"

**.wiredHost1.app[0].destAddresses = "wirelessHost1"
**.wiredHost2.app[0].destAddresses = "wirelessHost1"

**.wiredHost*.app[0].destPort = 1000
**.wiredHost*.app[0].messageLength = 100B
**.wiredHost*.app[0].sendInterval = 1s

**.radioMedium.pathLoss.alpha=2.65



